[nrel]
turbsim_exe=./example_data/TurbSim.exe
fast_exe=./example_data/FASTv7.0.2.exe
turbsim_base_file=./example_data/fast_input_files/TurbSim.inp
fast_base_file=./example_data/fast_input_files/v7/NRELOffshrBsline5MW_Onshore.fst
runner_type=process
fast_working_dir=./example_data
turbsim_working_dir=./example_data